!---------------------------------------------------------------------!
!***********************************************************************
!****                                                                  *
!****     SURFACE MECHANISM FOR SCR REACTIONS                     *
!****                                                                  *
!****     Kinetic data:                                                *
!****      k = A * T**b * exp (-Ea/RT)         A          b       Ea   *
!****                                       (cm,mol,s)    -     kJ/mol *
!***********************************************************************
MATERIAL Cu-ZSM5
SITE/SURFACE/  SDEN/9.046e-10/  
Cu(S) NH3(S)
END
THERMO ALL
  300.0   1000.0   3000.0
!*******************************************************************************
! Thermodynamic Data
!*******************************************************************************
Cu(S)                   Cu  1               S    300.0    3000.0  1000.0       1
 0.00000000E+00 0.00000000E+00 0.00000000E+00 0.00000000E+00 0.00000000E+00    2
 0.00000000E+00 0.00000000E+00 0.00000000E+00 0.00000000E+00 0.00000000E+00    3
 0.00000000E+00 0.00000000E+00 0.00000000E+00 0.00000000E+00                   4
NH3(S)                  N   1H   3Cu  1     I   300.0    3000.0   1000.0       1
 0.00000000E+00 0.00000000E+00 0.00000000E+00 0.00000000E+00 0.00000000E+00    2
 0.00000000E+00 0.00000000E+00 0.00000000E+00 0.00000000E+00 0.00000000E+00    3
 0.00000000E+00 0.00000000E+00 0.00000000E+00 0.00000000E+00                   4

END
!*********************************************************************      
!*                                                                   *     
!*             NH3-SCR SURFACE MECHANISM                             *
!*                                                                   *     
!*********************************************************************
REACTIONS KJOULES/MOL  
!*********************************************************************

NH3 + Cu(S) => NH3(S)                         6.82       0.0       0.0
NH3(S) => NH3 + Cu(S)                         7.334E5    0.0       181.5
      COV/NH3(S) 0.0 0.0 -117.87/
2NH3(S) + 1.5O2 => N2 + 3H2O + 2Cu(S)         8.8E11     0.0       162.4
      FORD/NH3(S) 1.0/
      FORD/O2 1.0/
NO + 0.5O2 <=> NO2                            0.0058672  0.0       48
4NH3(S) + 4NO + O2 => 4N2 + 6H2O + 4Cu(S)     1.6868E9   0.0       84.9
      FORD/NH3(S) 1.0/
      FORD/NO 1.0/
      FORD/O2 0.0/
2NH3(S) + NO + NO2 => 2N2 + 3H2O + 2Cu(S)     1.3935E19  0.0       85.1
      FORD/NH3(S) 1.0/
4NH3(S)+ 3NO2 => 3.5N2 + 6H2O + 4Cu(S)        8.0674E7   0.0       72.3
      FORD/NH3(S) 1.0/
      FORD/NO2 1.0/
2NH3(S) + 2NO2 => N2 + N2O + 3H2O + 2Cu(S)    264024     0.0       43.3
      FORD/NH3(S) 1.0/
      FORD/NO2 1.0/
!*********************************************************************      
END 
